Kraftwerk @ Gent (I Love Techno festival) - 21th october 2006 - Nafoute TV DVD

Tracklist :
    The Man Machine
    ComputerLiebe
    Les Mannequins
    AeroDynamik
    Musique non stop

Video & Authoring : Nafoute

==================================== 
General Informations : 
==================================== 
Date : 21.10.2006
Location : Gent
Duration : 31'
Type : Video 
Support : DVD+/-R 
Performance : Live 
Source : DV 
Integral : No 
Camera : Amateur (myself) 
Nb Cam. : 1 
Format : PAL
Sound : AC3 
Ratio : 16/9 
Authoring : Yes (By Titles) 
Menu : Yes 
==================================== 
Marks : 
==================================== 
Picture : VG
Audio :   G

<<<   NAFOUTE TV 2006   >>>
