Krafwerk
November 11, 2006 
M2 Indoor Festival
Zaragoza - SPAIN

Tracks
      The Man Machine		*
      Planet of visions		*
      Tour de France 2003	*
      Tour de France 1983
      Vitamin
      Autobahn
      ComputerLiebe
      Les Mannequins
      RadioActivity
      Trans Europe Express
      Numbers
      ComputerWelt
      HomeComputer
      The Robots
      AeroDynamik
      Music Non Stop

Video Source: 
	Nafoute
	Sony DCR-PC1000E PAL
	Master DV>AVI 

Audio Source 1: 
	KZ (quite good)
	MD > WAV > DVD

Audio Source 2: 
	Nafoute
	Camescope sound (pretty bad)

Assembly, Editing, Authoring: 
	Nafoute 


* The first 3 tracks are incomplete. I had to change place several times due to security paranoia (!?)

Thanks to KZ & Simonet
Merry XMas !
Enjoy ...

==================================== 
General Informations : 
==================================== 
Date : 11.11.2006
Location : Zaragoza (SPAIN)
Duration : Approx 1h40\'
Type : Video 
Support : DVD+/-R 
Performance : Live 
Source : DV 
Integral : Yes (but some parts missing in the 3 first songs)
Camera : Amateur (myself) 
Nb Cam. : 1 
Format : PAL
Résolution : 720 x 576
Sound : AC3 
Audio sound sources : 2
Ratio : 16/9 
Authoring : Yes
Menu : Yes 
==================================== 
Marks : 
==================================== 
Picture : Good
Audio :   Kind of good too
